CRYSTAL
# Primitive lattice vectors in Angstrom
PRIMVEC
 2.23855877378351 1.29243251064071 0.00000000000000
 -2.23855877378351 1.29243251064071 -0.00000000000000
 -0.00000000000000 -0.00000000000000 63.31600356107855
# Cartesian coordinates in Angstrom.
PRIMCOORD
 30 1
Fe    -0.00000000000000     0.00000000000000     0.00000000000000
Fe    -0.00000000000000     0.00000000000000     6.33160035610786
Fe    -0.00000000000000     0.00000000000000    12.66320071221571
Fe    -0.00000000000000     0.00000000000000    18.99480106832357
Fe    -0.00000000000000     0.00000000000000    25.32640142443142
Fe    -0.74618625792784     1.29243251064071     2.11053345203595
Fe    -0.74618625792784     1.29243251064071     8.44213380814381
Fe    -0.74618625792784     1.29243251064071    14.77373416425166
Fe    -0.74618625792784     1.29243251064071    21.10533452035952
Fe    -0.74618625792784     1.29243251064071    27.43693487646738
Fe     0.74618625792784     1.29243251064071     4.22106690407190
Fe     0.74618625792784     1.29243251064071    10.55266726017976
Fe     0.74618625792784     1.29243251064071    16.88426761628762
Fe     0.74618625792784     1.29243251064071    23.21586797239547
Fe     0.74618625792784     1.29243251064071    29.54746832850333
Fe     2.23855877378351     1.29243251064071    31.65800178053928
Fe     0.00000000000000     2.58486502128142    56.98440320497070
Fe    -0.00000000000000     2.58486502128142    50.65280284886285
Fe    -0.00000000000000     2.58486502128142    44.32120249275498
Fe    -0.00000000000000     2.58486502128141    37.98960213664714
Fe    -0.74618625792784     1.29243251064071    61.20547010904260
Fe    -0.74618625792784     1.29243251064071    54.87386975293475
Fe    -0.74618625792784     1.29243251064071    48.54226939682690
Fe    -0.74618625792784     1.29243251064071    42.21066904071904
Fe    -0.74618625792784     1.29243251064071    35.87906868461118
Fe     0.74618625792784     1.29243251064071    59.09493665700665
Fe     0.74618625792784     1.29243251064071    52.76333630089881
Fe     0.74618625792784     1.29243251064071    46.43173594479094
Fe     0.74618625792784     1.29243251064071    40.10013558868309
Fe     0.74618625792784     1.29243251064071    33.76853523257523