CRYSTAL
# Primitive lattice vectors in Angstrom
PRIMVEC
 -0.00000000000000 -0.00000000000000 3.65555117000000
 5.77993390024669 -0.00000000000000 0.00000000000000
 -0.00000000000000 69.35920680296030 0.00000000000000
# Cartesian coordinates in Angstrom.
PRIMCOORD
 120 1
Fe     5.77993390024669     0.00000000000000     0.00000000000000
Fe     5.77993390024669    11.55986780049338     3.65555117000000
Fe     5.77993390024669    23.11973560098676     0.00000000000000
Fe     3.46796034014801     1.15598678004934     0.00000000000000
Fe     3.46796034014801    12.71585458054272     3.65555117000000
Fe     3.46796034014801    24.27572238103610     0.00000000000000
Fe     2.31197356009868     4.62394712019735     0.00000000000000
Fe     2.31197356009868    16.18381492069074     0.00000000000000
Fe     2.31197356009867    27.74368272118412     0.00000000000000
Fe     1.15598678004934     8.09190746034537     0.00000000000000
Fe     1.15598678004934    19.65177526083875     0.00000000000000
Fe     1.15598678004933    31.21164306133213     0.00000000000000
Fe     1.15598678004934     2.31197356009868     3.65555117000000
Fe     1.15598678004934    13.87184136059206     0.00000000000000
Fe     1.15598678004934    25.43170916108545     0.00000000000000
Fe    -0.00000000000000     5.77993390024669     0.00000000000000
Fe    -0.00000000000000    17.33980170074008     3.65555117000000
Fe    -0.00000000000000    28.89966950123346     0.00000000000000
Fe     4.62394712019735     9.24789424039471     0.00000000000000
Fe     4.62394712019735    20.80776204088809     0.00000000000000
Fe     4.62394712019735    32.36762984138147     0.00000000000000
Fe     4.62394712019735     3.46796034014802     0.00000000000000
Fe     4.62394712019735    15.02782814064140     0.00000000000000
Fe     4.62394712019735    26.58769594113478     3.65555117000000
Fe     3.46796034014801     6.93592068029603     3.65555117000000
Fe     3.46796034014801    18.49578848078941     0.00000000000000
Fe     3.46796034014801    30.05565628128279     0.00000000000000
Fe     2.31197356009868    10.40388102044404     0.00000000000000
Fe     2.31197356009868    21.96374882093743     3.65555117000000
Fe     2.31197356009867    33.52361662143081     0.00000000000000
Fe     5.20194051022202     1.73398017007401     1.82777558500000
Fe     5.20194051022202    13.29384797056739     1.82777558500000
Fe     5.20194051022202    24.85371577106077     1.82777558500000
Fe     2.88996695012335     2.88996695012335     1.82777558500000
Fe     2.88996695012335    14.44983475061673     1.82777558500000
Fe     2.88996695012334    26.00970255111011     1.82777558500000
Fe     1.73398017007401     6.35792729027136     1.82777558500000
Fe     1.73398017007401    17.91779509076474     1.82777558500000
Fe     1.73398017007401    29.47766289125813     1.82777558500000
Fe     0.57799339002467     9.82588763041938     1.82777558500000
Fe     0.57799339002467    21.38575543091276     1.82777558500000
Fe     0.57799339002467    32.94562323140614     1.82777558500000
Fe     0.57799339002467     4.04595373017268     1.82777558500000
Fe     0.57799339002467    15.60582153066607     1.82777558500000
Fe     0.57799339002467    27.16568933115946     1.82777558500000
Fe     5.20194051022202     7.51391407032070     1.82777558500000
Fe     5.20194051022202    19.07378187081408     1.82777558500000
Fe     5.20194051022202    30.63364967130747     1.82777558500000
Fe     4.04595373017268    10.98187441046872     1.82777558500000
Fe     4.04595373017268    22.54174221096210     1.82777558500000
Fe     4.04595373017268    34.10161001145548     1.82777558500000
Fe     4.04595373017268     5.20194051022202     1.82777558500000
Fe     4.04595373017268    16.76180831071541     1.82777558500000
Fe     4.04595373017268    28.32167611120879     1.82777558500000
Fe     2.88996695012334     8.66990085037004     1.82777558500000
Fe     2.88996695012334    20.22976865086342     1.82777558500000
Fe     2.88996695012334    31.78963645135680     1.82777558500000
Fe     1.73398017007401     0.57799339002467     1.82777558500000
Fe     1.73398017007401    12.13786119051805     1.82777558500000
Fe     1.73398017007401    23.69772899101144     1.82777558500000
Fe    -0.00000000000000    34.67960340148015     3.65555117000000
Fe    -0.00000000000000    57.79933900246693     3.65555117000000
Fe    -0.00000000000000    46.23947120197354     0.00000000000000
Fe     3.46796034014801    68.20322002291095     3.65555117000000
Fe     3.46796034014801    56.64335222241759     3.65555117000000
Fe     3.46796034014801    45.08348442192420     0.00000000000000
Fe     2.31197356009867    64.73525968276294     3.65555117000000
Fe     2.31197356009867    53.17539188226957     3.65555117000000
Fe     2.31197356009867    41.61552408177619     0.00000000000000
Fe     1.15598678004933    61.26729934261495     3.65555117000000
Fe     1.15598678004933    49.70743154212155     0.00000000000000
Fe     1.15598678004933    38.14756374162818     0.00000000000000
Fe     1.15598678004934    67.04723324286162     3.65555117000000
Fe     1.15598678004934    55.48736544236824     3.65555117000000
Fe     1.15598678004934    43.92749764187487     0.00000000000000
Fe    -0.00000000000000    63.57927290271361     3.65555117000000
Fe    -0.00000000000000    52.01940510222023     3.65555117000000
Fe    -0.00000000000000    40.45953730172685     0.00000000000000
Fe     4.62394712019735    60.11131256256560     3.65555117000000
Fe     4.62394712019735    48.55144476207222     0.00000000000000
Fe     4.62394712019735    36.99157696157884     0.00000000000000
Fe     4.62394712019735    65.89124646281229     3.65555117000000
Fe     4.62394712019735    54.33137866231891     3.65555117000000
Fe     4.62394712019735    42.77151086182555     0.00000000000000
Fe     3.46796034014801    62.42328612266427     3.65555117000000
Fe     3.46796034014801    50.86341832217089     3.65555117000000
Fe     3.46796034014801    39.30355052167751     0.00000000000000
Fe     2.31197356009867    58.95532578251626     3.65555117000000
Fe     2.31197356009867    47.39545798202288     0.00000000000000
Fe     2.31197356009867    35.83559018152950     0.00000000000000
Fe     5.20194051022202    67.62522663288630     1.82777558500000
Fe     5.20194051022202    56.06535883239292     1.82777558500000
Fe     5.20194051022202    44.50549103189954     1.82777558500000
Fe     2.88996695012334    66.46923985283695     1.82777558500000
Fe     2.88996695012334    54.90937205234358     1.82777558500000
Fe     2.88996695012334    43.34950425185021     1.82777558500000
Fe     1.73398017007401    63.00127951268894     1.82777558500000
Fe     1.73398017007400    51.44141171219556     1.82777558500000
Fe     1.73398017007400    39.88154391170220     1.82777558500001
Fe     0.57799339002467    59.53331917254093     1.82777558500000
Fe     0.57799339002467    47.97345137204754     1.82777558500000
Fe     0.57799339002466    36.41358357155418     1.82777558500001
Fe     0.57799339002467    65.31325307278762     1.82777558500000
Fe     0.57799339002467    53.75338527229425     1.82777558500000
Fe     0.57799339002467    42.19351747180085     1.82777558500001
Fe     5.20194051022202    61.84529273263961     1.82777558500000
Fe     5.20194051022202    50.28542493214624     1.82777558500000
Fe     5.20194051022202    38.72555713165284     1.82777558500000
Fe     4.04595373017268    58.37733239249160     1.82777558500000
Fe     4.04595373017268    46.81746459199822     1.82777558500000
Fe     4.04595373017268    35.25759679150483     1.82777558500001
Fe     4.04595373017268    64.15726629273829     1.82777558500000
Fe     4.04595373017268    52.59739849224490     1.82777558500000
Fe     4.04595373017268    41.03753069175152     1.82777558500000
Fe     2.88996695012334    60.68930595259026     1.82777558500000
Fe     2.88996695012334    49.12943815209688     1.82777558500000
Fe     2.88996695012334    37.56957035160350     1.82777558500001
Fe     1.73398017007401    68.78121341293563     1.82777558500000
Fe     1.73398017007400    57.22134561244226     1.82777558500000
Fe     1.73398017007400    45.66147781194887     1.82777558500000